version 2
1
9
.tran 20ps 4us{return}.control{return}run{return}plot output input{return}.endc{return}{return}{return}.kicad adjustpaths{return}.save all{return}.probe alli
2
1
V(input)
 
1
V(probe)
 
